<?xml version="1.0" encoding="UTF-8"?>

<!-- generated on Mon Jul 12 19:10:35 2021 by Eclipse SUMO duarouter Version 1.8.0
<configuration xmlns:xsi="http://www.w3.org/2001/XMLSchema-instance" xsi:noNamespaceSchemaLocation="http://sumo.dlr.de/xsd/duarouterConfiguration.xsd">

    <input>
        <net-file value="/usr/local/Cellar/sumo/1.8.0/share/sumo/tools/2021-07-12-19-08-25/osm.net.xml"/>
        <route-files value="/usr/local/Cellar/sumo/1.8.0/share/sumo/tools/2021-07-12-19-08-25/osm.passenger.trips.xml"/>
    </input>

    <output>
        <output-file value="/usr/local/Cellar/sumo/1.8.0/share/sumo/tools/2021-07-12-19-08-25/osm.passenger.trips.xml.tmp"/>
        <write-trips value="true"/>
    </output>

    <time>
        <begin value="0"/>
        <end value="3600"/>
    </time>

    <report>
        <no-warnings value="true"/>
        <ignore-errors value="true"/>
        <no-step-log value="true"/>
    </report>

</configuration>
-->

<routes xmlns:xsi="http://www.w3.org/2001/XMLSchema-instance" xsi:noNamespaceSchemaLocation="http://sumo.dlr.de/xsd/routes_file.xsd">
    <vType id="veh_passenger" vClass="passenger"/>
    <trip id="veh0" type="veh_passenger" depart="0.00" departLane="best" from="35880955#11" to="-194732278#7"/>
    <trip id="veh1" type="veh_passenger" depart="0.21" departLane="best" from="-7683212#5" to="-494922299#0"/>
    <trip id="veh2" type="veh_passenger" depart="0.42" departLane="best" from="484557814#6" to="49026437#2"/>
    <trip id="veh3" type="veh_passenger" depart="0.63" departLane="best" from="7690231#0" to="-238403887#1"/>
    <trip id="veh4" type="veh_passenger" depart="0.84" departLane="best" from="-894433362#0" to="-195066577"/>
    <trip id="veh5" type="veh_passenger" depart="1.05" departLane="best" departSpeed="max" from="-7677075" to="218758480#3"/>
    <trip id="veh6" type="veh_passenger" depart="1.26" departLane="best" departSpeed="max" from="-203054844#2" to="-48431912#9"/>
    <trip id="veh7" type="veh_passenger" depart="1.47" departLane="best" from="36315036#5" to="331224569#1"/>
    <trip id="veh8" type="veh_passenger" depart="1.68" departLane="best" departSpeed="max" from="-7677358#4" to="37724969#2"/>
    <trip id="veh9" type="veh_passenger" depart="1.89" departLane="best" departSpeed="max" from="7678342#0" to="-168171762#0"/>
    <trip id="veh10" type="veh_passenger" depart="2.10" departLane="best" from="7677379#1" to="652987072#1"/>
    <trip id="veh11" type="veh_passenger" depart="2.31" departLane="best" departSpeed="max" from="-7690043#2" to="-40535412#4"/>
    <trip id="veh12" type="veh_passenger" depart="2.52" departLane="best" from="87872589#0" to="-7688886#11"/>
    <trip id="veh13" type="veh_passenger" depart="2.73" departLane="best" from="-397553525#4" to="-35423209#3"/>
    <trip id="veh14" type="veh_passenger" depart="2.94" departLane="best" from="7683588#8" to="40477210"/>
    <trip id="veh15" type="veh_passenger" depart="3.15" departLane="best" departSpeed="max" from="7677555#0" to="7675203#13"/>
    <trip id="veh16" type="veh_passenger" depart="3.36" departLane="best" from="204503058#6" to="892887858#0"/>
    <trip id="veh17" type="veh_passenger" depart="3.57" departLane="best" departSpeed="max" from="-802758576#2" to="35640760#7"/>
    <trip id="veh18" type="veh_passenger" depart="3.78" departLane="best" from="7680850#0" to="41442909#2"/>
    <trip id="veh19" type="veh_passenger" depart="3.99" departLane="best" from="7685744#3" to="36978229#4"/>
    <trip id="veh20" type="veh_passenger" depart="4.20" departLane="best" departSpeed="max" from="41443679" to="-197331580"/>
    <trip id="veh21" type="veh_passenger" depart="4.41" departLane="best" from="-7678658#5" to="-7681867#5"/>
    <trip id="veh22" type="veh_passenger" depart="4.62" departLane="best" departSpeed="max" from="-36311949#2" to="-672798952#0"/>
    <trip id="veh23" type="veh_passenger" depart="4.83" departLane="best" from="-40540844#3" to="-7680154#2"/>
    <trip id="veh24" type="veh_passenger" depart="5.04" departLane="best" departSpeed="max" from="35876713#0" to="-802753421#10"/>
    <trip id="veh25" type="veh_passenger" depart="5.25" departLane="best" from="-802753418#2" to="-49026357#20"/>
    <trip id="veh26" type="veh_passenger" depart="5.46" departLane="best" departSpeed="max" from="-7682447#4" to="87101495#4"/>
    <trip id="veh27" type="veh_passenger" depart="5.67" departLane="best" departSpeed="max" from="36037846" to="40631673#1"/>
    <trip id="veh28" type="veh_passenger" depart="5.88" departLane="best" from="-498673255#0" to="7675141#7"/>
    <trip id="veh29" type="veh_passenger" depart="6.09" departLane="best" from="-49036440#2" to="-85932353"/>
    <trip id="veh30" type="veh_passenger" depart="6.30" departLane="best" from="907574342#1" to="43417151#2"/>
    <trip id="veh31" type="veh_passenger" depart="6.51" departLane="best" from="218678699" to="49036448"/>
    <trip id="veh32" type="veh_passenger" depart="6.72" departLane="best" from="7683212#12" to="7680554"/>
    <trip id="veh33" type="veh_passenger" depart="6.93" departLane="best" from="-7678916#0" to="-195066706#1"/>
    <trip id="veh34" type="veh_passenger" depart="7.14" departLane="best" from="-7687298#4" to="-7679326#2"/>
    <trip id="veh35" type="veh_passenger" depart="7.35" departLane="best" from="-7676099#1" to="877763352"/>
    <trip id="veh36" type="veh_passenger" depart="7.56" departLane="best" from="7687920" to="-7685605#1"/>
    <trip id="veh37" type="veh_passenger" depart="7.77" departLane="best" from="37022701#2" to="-888161085#5"/>
    <trip id="veh38" type="veh_passenger" depart="7.98" departLane="best" from="775601519#1" to="196617033#1"/>
    <trip id="veh39" type="veh_passenger" depart="8.19" departLane="best" from="-7682232#1" to="-7670672#5"/>
    <trip id="veh40" type="veh_passenger" depart="8.40" departLane="best" from="218678726#5" to="-7678241#1"/>
    <trip id="veh41" type="veh_passenger" depart="8.61" departLane="best" from="229357869#3" to="775750509#0"/>
    <trip id="veh42" type="veh_passenger" depart="8.82" departLane="best" from="-87101592#1" to="-49036454#0"/>
    <trip id="veh43" type="veh_passenger" depart="9.03" departLane="best" from="95030386#3" to="218758499#0"/>
    <trip id="veh44" type="veh_passenger" depart="9.24" departLane="best" from="-38520969#2" to="-199298826"/>
    <trip id="veh45" type="veh_passenger" depart="9.45" departLane="best" from="-41442849#1" to="41443057#1"/>
    <trip id="veh46" type="veh_passenger" depart="9.66" departLane="best" from="7670672#4" to="100761507#10"/>
    <trip id="veh47" type="veh_passenger" depart="9.87" departLane="best" from="-35642194#2" to="-87101559#0"/>
    <trip id="veh48" type="veh_passenger" depart="10.08" departLane="best" from="936232766#1" to="229489593#3"/>
    <trip id="veh49" type="veh_passenger" depart="10.29" departLane="best" from="892137985#0-AddedOffRampEdge" to="7689287#3"/>
    <trip id="veh50" type="veh_passenger" depart="10.50" departLane="best" from="-194417020#19" to="741843817"/>
    <trip id="veh51" type="veh_passenger" depart="10.71" departLane="best" from="40535412#3" to="238403887#6"/>
    <trip id="veh52" type="veh_passenger" depart="10.92" departLane="best" departSpeed="max" from="-7682447#4" to="43417166#4"/>
    <trip id="veh53" type="veh_passenger" depart="11.13" departLane="best" from="-41442882#0" to="168476719#0"/>
    <trip id="veh54" type="veh_passenger" depart="11.34" departLane="best" from="168476719#1" to="87872458#3"/>
    <trip id="veh55" type="veh_passenger" depart="11.55" departLane="best" from="7687856" to="-7678332#1"/>
    <trip id="veh56" type="veh_passenger" depart="11.76" departLane="best" from="196617054#1" to="-41443736#2"/>
    <trip id="veh57" type="veh_passenger" depart="11.97" departLane="best" from="77322116#2" to="7690386#6"/>
    <trip id="veh58" type="veh_passenger" depart="12.18" departLane="best" from="-7685175#2" to="43356857#5"/>
    <trip id="veh59" type="veh_passenger" depart="12.39" departLane="best" from="35423202#1" to="-40477202"/>
    <trip id="veh60" type="veh_passenger" depart="12.60" departLane="best" departSpeed="max" from="494922301#0" to="244184601#6"/>
    <trip id="veh61" type="veh_passenger" depart="12.81" departLane="best" departSpeed="max" from="693591745#0" to="229489595#2-AddedOnRampEdge"/>
    <trip id="veh62" type="veh_passenger" depart="13.02" departLane="best" departSpeed="max" from="-100761405#1" to="-7687075#0"/>
    <trip id="veh63" type="veh_passenger" depart="13.23" departLane="best" from="-197122843#4" to="856229889#0"/>
    <trip id="veh64" type="veh_passenger" depart="13.44" departLane="best" from="7688430#7" to="7686186#4"/>
    <trip id="veh65" type="veh_passenger" depart="13.65" departLane="best" from="-7686440#1" to="-202730967"/>
    <trip id="veh66" type="veh_passenger" depart="13.86" departLane="best" from="7688426#2" to="877763366#0-AddedOnRampEdge"/>
    <trip id="veh67" type="veh_passenger" depart="14.07" departLane="best" departSpeed="max" from="-37342439#2" to="218652296"/>
    <trip id="veh68" type="veh_passenger" depart="14.28" departLane="best" from="-35879038#0" to="7679524#1"/>
    <trip id="veh69" type="veh_passenger" depart="14.49" departLane="best" from="588475546#2" to="-35880982#1"/>
    <trip id="veh70" type="veh_passenger" depart="14.70" departLane="best" departSpeed="max" from="194417033" to="35423868#4"/>
    <trip id="veh71" type="veh_passenger" depart="14.91" departLane="best" departSpeed="max" from="-7682242" to="7690520#3"/>
    <trip id="veh72" type="veh_passenger" depart="15.12" departLane="best" from="-896532845#4" to="-49026430#6"/>
    <trip id="veh74" type="veh_passenger" depart="15.54" departLane="best" from="-7670672#0" to="-7684812#3"/>
    <trip id="veh75" type="veh_passenger" depart="15.75" departLane="best" from="923626173#1" to="43829135"/>
    <trip id="veh76" type="veh_passenger" depart="15.96" departLane="best" from="-928168665#2" to="220531975#1"/>
    <trip id="veh77" type="veh_passenger" depart="16.17" departLane="best" from="-41443056#5" to="-498673258#1"/>
    <trip id="veh78" type="veh_passenger" depart="16.38" departLane="best" departSpeed="max" from="-7689723" to="37724969#10"/>
    <trip id="veh79" type="veh_passenger" depart="16.59" departLane="best" departSpeed="max" from="-7679105" to="-49036456"/>
    <trip id="veh80" type="veh_passenger" depart="16.81" departLane="best" departSpeed="max" from="-35879641#1" to="41931740#14"/>
    <trip id="veh81" type="veh_passenger" depart="17.02" departLane="best" from="-7678863#5" to="802758554#2"/>
    <trip id="veh82" type="veh_passenger" depart="17.23" departLane="best" from="7685175#2" to="-204503058#3"/>
    <trip id="veh83" type="veh_passenger" depart="17.44" departLane="best" departSpeed="max" from="-7679715" to="48948575"/>
    <trip id="veh84" type="veh_passenger" depart="17.65" departLane="best" from="-7676407" to="-35881202#9"/>
    <trip id="veh85" type="veh_passenger" depart="17.86" departLane="best" from="85877643#1" to="36006988#1"/>
    <trip id="veh86" type="veh_passenger" depart="18.07" departLane="best" departSpeed="max" from="194417012" to="7681624#4"/>
    <trip id="veh87" type="veh_passenger" depart="18.28" departLane="best" departSpeed="max" from="7677815" to="-44553537#3"/>
    <trip id="veh88" type="veh_passenger" depart="18.49" departLane="best" from="-40477205#1" to="124147164#1"/>
    <trip id="veh89" type="veh_passenger" depart="18.70" departLane="best" from="-901457050#0" to="202730843#0"/>
    <trip id="veh90" type="veh_passenger" depart="18.91" departLane="best" departSpeed="max" from="44629325" to="49026357#10"/>
    <trip id="veh91" type="veh_passenger" depart="19.12" departLane="best" from="904898823#0" to="-35423221"/>
    <trip id="veh92" type="veh_passenger" depart="19.33" departLane="best" from="-87870606#6" to="-7689132#8"/>
    <trip id="veh93" type="veh_passenger" depart="19.54" departLane="best" from="7685744#2" to="-7675203#4"/>
    <trip id="veh94" type="veh_passenger" depart="19.75" departLane="best" departSpeed="max" from="-693847672" to="194732278#0"/>
    <trip id="veh95" type="veh_passenger" depart="19.96" departLane="best" from="-894433361#1" to="-7680215#1"/>
    <trip id="veh96" type="veh_passenger" depart="20.17" departLane="best" from="-7680511#3" to="847836908#1"/>
    <trip id="veh97" type="veh_passenger" depart="20.38" departLane="best" from="109469363#2" to="7689300#5"/>
    <trip id="veh98" type="veh_passenger" depart="20.59" departLane="best" from="218665253#1" to="-199469254"/>
    <trip id="veh99" type="veh_passenger" depart="20.80" departLane="best" departSpeed="max" from="962919866#0" to="7686706"/>
    <trip id="veh100" type="veh_passenger" depart="21.01" departLane="best" from="892126993" to="85247110#3"/>
    <trip id="veh101" type="veh_passenger" depart="21.22" departLane="best" from="7683773" to="-41442873#6"/>
    <trip id="veh102" type="veh_passenger" depart="21.43" departLane="best" departSpeed="max" from="194853144" to="-49026708"/>
    <trip id="veh103" type="veh_passenger" depart="21.64" departLane="best" from="-87869539#1" to="-202731008#4"/>
    <trip id="veh104" type="veh_passenger" depart="21.85" departLane="best" departSpeed="max" from="-82997593" to="905659045#0"/>
    <trip id="veh105" type="veh_passenger" depart="22.06" departLane="best" departSpeed="max" from="-7682242" to="7681587"/>
    <trip id="veh106" type="veh_passenger" depart="22.27" departLane="best" from="168476719#1" to="109469363#0"/>
    <trip id="veh107" type="veh_passenger" depart="22.48" departLane="best" from="87872632#0" to="923626173#1"/>
    <trip id="veh108" type="veh_passenger" depart="22.69" departLane="best" from="218670473#0" to="720020432"/>
    <trip id="veh109" type="veh_passenger" depart="22.90" departLane="best" from="-49026357#17" to="-7683173#1"/>
    <trip id="veh110" type="veh_passenger" depart="23.11" departLane="best" from="892122957#1" to="37022701#3"/>
    <trip id="veh111" type="veh_passenger" depart="23.32" departLane="best" from="218652224#0" to="7677555#1"/>
    <trip id="veh112" type="veh_passenger" depart="23.53" departLane="best" from="-35423834#1" to="37569333#0"/>
    <trip id="veh113" type="veh_passenger" depart="23.74" departLane="best" departSpeed="max" from="197122844" to="7688703"/>
    <trip id="veh114" type="veh_passenger" depart="23.95" departLane="best" departSpeed="max" from="-49026430#7" to="888033487#3"/>
    <trip id="veh115" type="veh_passenger" depart="24.16" departLane="best" from="-36315036#4" to="-43356867#0"/>
    <trip id="veh116" type="veh_passenger" depart="24.37" departLane="best" from="229489781#4" to="49026391#1"/>
    <trip id="veh117" type="veh_passenger" depart="24.58" departLane="best" from="-7679524#2" to="-35832774"/>
    <trip id="veh118" type="veh_passenger" depart="24.79" departLane="best" from="7690071#2" to="-7670536#1"/>
    <trip id="veh119" type="veh_passenger" depart="25.00" departLane="best" departSpeed="max" from="229489781#0" to="41442928#0"/>
    <trip id="veh120" type="veh_passenger" depart="25.21" departLane="best" from="-892875958" to="37569255#1"/>
    <trip id="veh121" type="veh_passenger" depart="25.42" departLane="best" from="202731009#2" to="85932244#3"/>
    <trip id="veh122" type="veh_passenger" depart="25.63" departLane="best" departSpeed="max" from="-7675203#13" to="718258616#5"/>
    <trip id="veh123" type="veh_passenger" depart="25.84" departLane="best" from="-7679732#14" to="-888212476#1"/>
    <trip id="veh124" type="veh_passenger" depart="26.05" departLane="best" from="397553528#2" to="-7683431#2"/>
    <trip id="veh125" type="veh_passenger" depart="26.26" departLane="best" departSpeed="max" from="-7687385#1" to="7678332#2"/>
    <trip id="veh126" type="veh_passenger" depart="26.47" departLane="best" from="-35880955#12" to="196617026#2"/>
    <trip id="veh127" type="veh_passenger" depart="26.68" departLane="best" from="957061466" to="936173533"/>
    <trip id="veh128" type="veh_passenger" depart="26.89" departLane="best" from="-35880980#1" to="-49026529#3"/>
    <trip id="veh129" type="veh_passenger" depart="27.10" departLane="best" departSpeed="max" from="-7682242" to="85877789#7"/>
    <trip id="veh130" type="veh_passenger" depart="27.31" departLane="best" from="7688843#1" to="7691332#2"/>
    <trip id="veh131" type="veh_passenger" depart="27.52" departLane="best" from="-802753413#1" to="-40536750#9"/>
    <trip id="veh132" type="veh_passenger" depart="27.73" departLane="best" from="35423826#10" to="907188482#0"/>
    <trip id="veh133" type="veh_passenger" depart="27.94" departLane="best" from="36978229#1" to="-191173236#0"/>
    <trip id="veh134" type="veh_passenger" depart="28.15" departLane="best" from="7679672#1" to="-7683307#8"/>
    <trip id="veh135" type="veh_passenger" depart="28.36" departLane="best" from="37722940#0" to="87101571#6"/>
    <trip id="veh136" type="veh_passenger" depart="28.57" departLane="best" from="-437882285#0" to="-35743784#7"/>
    <trip id="veh137" type="veh_passenger" depart="28.78" departLane="best" departSpeed="max" from="-40631692" to="35640776#3"/>
    <trip id="veh138" type="veh_passenger" depart="28.99" departLane="best" departSpeed="max" from="-7682972" to="40535414#0"/>
    <trip id="veh139" type="veh_passenger" depart="29.20" departLane="best" from="43417166#3" to="-48531804#0"/>
    <trip id="veh140" type="veh_passenger" depart="29.41" departLane="best" departSpeed="max" from="35832794" to="-7678390#0"/>
    <trip id="veh141" type="veh_passenger" depart="29.62" departLane="best" from="194878451#8" to="802758554#1"/>
    <trip id="veh142" type="veh_passenger" depart="29.83" departLane="best" from="7683500#0" to="-310461086#1"/>
    <trip id="veh143" type="veh_passenger" depart="30.04" departLane="best" from="-901457050#0" to="-7679919#1"/>
    <trip id="veh144" type="veh_passenger" depart="30.25" departLane="best" from="-120253741#1" to="7680187#2"/>
    <trip id="veh145" type="veh_passenger" depart="30.46" departLane="best" from="35879163#2" to="-7677921#0"/>
    <trip id="veh146" type="veh_passenger" depart="30.67" departLane="best" departSpeed="max" from="48531787" to="35640760#16"/>
    <trip id="veh147" type="veh_passenger" depart="30.88" departLane="best" from="-904203214#1" to="-191532169"/>
    <trip id="veh148" type="veh_passenger" depart="31.09" departLane="best" from="-35881041#17" to="7691772#4"/>
    <trip id="veh149" type="veh_passenger" depart="31.30" departLane="best" from="7692033#1" to="35417062"/>
    <trip id="veh150" type="veh_passenger" depart="31.51" departLane="best" from="7681848#2" to="37342439#2"/>
    <trip id="veh151" type="veh_passenger" depart="31.72" departLane="best" departSpeed="max" from="-48948517" to="-35880964#0"/>
    <trip id="veh152" type="veh_passenger" depart="31.93" departLane="best" from="-7686488#3" to="802753405#0"/>
    <trip id="veh153" type="veh_passenger" depart="32.14" departLane="best" from="7675730#1" to="7689287#2"/>
    <trip id="veh154" type="veh_passenger" depart="32.35" departLane="best" from="7691088#0" to="-49026357#5"/>
    <trip id="veh155" type="veh_passenger" depart="32.56" departLane="best" from="-7680511#13" to="-35567726"/>
    <trip id="veh156" type="veh_passenger" depart="32.77" departLane="best" from="709584673" to="7691969#4"/>
    <trip id="veh157" type="veh_passenger" depart="32.98" departLane="best" departSpeed="max" from="-88164578" to="41442933#4"/>
    <trip id="veh158" type="veh_passenger" depart="33.19" departLane="best" from="7686186#3" to="896379973#2"/>
    <trip id="veh159" type="veh_passenger" depart="33.40" departLane="best" from="7678837#2" to="7691652#0"/>
    <trip id="veh160" type="veh_passenger" depart="33.61" departLane="best" departSpeed="max" from="-202731003#1" to="7676109#2"/>
    <trip id="veh161" type="veh_passenger" depart="33.82" departLane="best" from="-7688917" to="858378009#16"/>
    <trip id="veh162" type="veh_passenger" depart="34.03" departLane="best" from="7676670#12" to="7689809#1"/>
    <trip id="veh163" type="veh_passenger" depart="34.24" departLane="best" from="7678837#2" to="-7679195#1"/>
    <trip id="veh164" type="veh_passenger" depart="34.45" departLane="best" departSpeed="max" from="720215491" to="-35641381#0"/>
    <trip id="veh165" type="veh_passenger" depart="34.66" departLane="best" departSpeed="max" from="7687332#0" to="7688971"/>
    <trip id="veh166" type="veh_passenger" depart="34.87" departLane="best" departSpeed="max" from="-7677555#1" to="7684425#1"/>
    <trip id="veh167" type="veh_passenger" depart="35.08" departLane="best" departSpeed="max" from="191532169" to="-7683997#3"/>
    <trip id="veh168" type="veh_passenger" depart="35.29" departLane="best" from="7675373#0" to="-612115999#2"/>
    <trip id="veh169" type="veh_passenger" depart="35.50" departLane="best" from="-202369469" to="-44629402"/>
    <trip id="veh170" type="veh_passenger" depart="35.71" departLane="best" from="-7688796#2" to="7689867#1"/>
    <trip id="veh171" type="veh_passenger" depart="35.92" departLane="best" from="891760175#0" to="-7680239#2"/>
    <trip id="veh172" type="veh_passenger" depart="36.13" departLane="best" from="35880980#2" to="-892128452#0"/>
    <trip id="veh173" type="veh_passenger" depart="36.34" departLane="best" from="904195293#4" to="23550689#2"/>
    <trip id="veh174" type="veh_passenger" depart="36.55" departLane="best" from="867318208#2" to="-35743784#6"/>
    <trip id="veh175" type="veh_passenger" depart="36.76" departLane="best" from="892137983#2" to="-41443732"/>
    <trip id="veh176" type="veh_passenger" depart="36.97" departLane="best" from="888033487#3" to="-7678863#1"/>
    <trip id="veh177" type="veh_passenger" depart="37.18" departLane="best" departSpeed="max" from="-413212082#1" to="168476719#0"/>
    <trip id="veh178" type="veh_passenger" depart="37.39" departLane="best" departSpeed="max" from="44629323" to="-7685175#1"/>
    <trip id="veh179" type="veh_passenger" depart="37.60" departLane="best" departSpeed="max" from="35417075" to="218758505"/>
    <trip id="veh181" type="veh_passenger" depart="38.02" departLane="best" departSpeed="max" from="-7680946#3" to="687322793#5"/>
    <trip id="veh182" type="veh_passenger" depart="38.23" departLane="best" from="-100761507#4" to="85247102#1"/>
    <trip id="veh183" type="veh_passenger" depart="38.44" departLane="best" departSpeed="max" from="205524355" to="720037157#0"/>
    <trip id="veh184" type="veh_passenger" depart="38.65" departLane="best" departSpeed="max" from="48531795" to="49026210#1"/>
    <trip id="veh185" type="veh_passenger" depart="38.86" departLane="best" from="-77169266#0" to="-203552751#1"/>
    <trip id="veh186" type="veh_passenger" depart="39.07" departLane="best" from="37724969#14" to="-7687914"/>
    <trip id="veh187" type="veh_passenger" depart="39.28" departLane="best" from="-7687087" to="7687951"/>
    <trip id="veh188" type="veh_passenger" depart="39.49" departLane="best" departSpeed="max" from="43417360" to="-7683492#2"/>
    <trip id="veh189" type="veh_passenger" depart="39.70" departLane="best" from="-7686607#15" to="-904199940#9"/>
    <trip id="veh190" type="veh_passenger" depart="39.91" departLane="best" from="-87870606#0" to="-7682969#1"/>
    <trip id="veh191" type="veh_passenger" depart="40.12" departLane="best" from="-43071109#3" to="-95030673#1"/>
    <trip id="veh192" type="veh_passenger" depart="40.33" departLane="best" from="87101509#6" to="49026502#11"/>
    <trip id="veh193" type="veh_passenger" depart="40.54" departLane="best" from="7691882#0" to="413212087"/>
    <trip id="veh194" type="veh_passenger" depart="40.75" departLane="best" from="-7685634#3" to="35423216#0"/>
    <trip id="veh195" type="veh_passenger" depart="40.96" departLane="best" departSpeed="max" from="-100761405#1" to="-7681624#3"/>
    <trip id="veh196" type="veh_passenger" depart="41.17" departLane="best" from="-904905520#1" to="37278086#1"/>
    <trip id="veh197" type="veh_passenger" depart="41.38" departLane="best" from="36978229#6" to="199955172#1"/>
    <trip id="veh198" type="veh_passenger" depart="41.59" departLane="best" from="100761507#10" to="-49026686"/>
    <trip id="veh199" type="veh_passenger" depart="41.80" departLane="best" from="194417020#1" to="802753412#7"/>
    <trip id="veh200" type="veh_passenger" depart="42.01" departLane="best" from="7675729#0" to="-41442933#2"/>
    <trip id="veh201" type="veh_passenger" depart="42.22" departLane="best" departSpeed="max" from="-372986938#2" to="219613012#0"/>
    <trip id="veh202" type="veh_passenger" depart="42.43" departLane="best" departSpeed="max" from="35832773" to="-7688844#3"/>
    <trip id="veh203" type="veh_passenger" depart="42.64" departLane="best" from="7679709#4" to="7678287#5"/>
    <trip id="veh205" type="veh_passenger" depart="43.06" departLane="best" from="-766586377#3" to="-194732278#10"/>
    <trip id="veh206" type="veh_passenger" depart="43.27" departLane="best" from="-7680154#0" to="205524354#1"/>
    <trip id="veh207" type="veh_passenger" depart="43.48" departLane="best" from="7683830#2" to="-205524352"/>
    <trip id="veh208" type="veh_passenger" depart="43.69" departLane="best" from="-891759604#1" to="41913334"/>
    <trip id="veh209" type="veh_passenger" depart="43.90" departLane="best" departSpeed="max" from="-720020429" to="626197867#1"/>
    <trip id="veh210" type="veh_passenger" depart="44.11" departLane="best" departSpeed="max" from="195699404" to="-765735880"/>
    <trip id="veh212" type="veh_passenger" depart="44.53" departLane="best" from="49026463#1" to="7680147"/>
    <trip id="veh213" type="veh_passenger" depart="44.74" departLane="best" from="-40631690#7" to="118756783#11"/>
    <trip id="veh214" type="veh_passenger" depart="44.95" departLane="best" departSpeed="max" from="-626197865" to="882315623#16"/>
    <trip id="veh215" type="veh_passenger" depart="45.16" departLane="best" departSpeed="max" from="202369407" to="-199469252"/>
    <trip id="veh216" type="veh_passenger" depart="45.37" departLane="best" from="-7680502#2" to="7687962#2"/>
    <trip id="veh217" type="veh_passenger" depart="45.58" departLane="best" from="168476719#2" to="7683238#4"/>
    <trip id="veh218" type="veh_passenger" depart="45.79" departLane="best" from="380708263" to="907190369#0"/>
    <trip id="veh219" type="veh_passenger" depart="46.00" departLane="best" from="230034819" to="87869865#1"/>
    <trip id="veh220" type="veh_passenger" depart="46.21" departLane="best" departSpeed="max" from="7690126" to="40631690#6"/>
    <trip id="veh221" type="veh_passenger" depart="46.42" departLane="best" departSpeed="max" from="43417359" to="218758478#1"/>
    <trip id="veh222" type="veh_passenger" depart="46.63" departLane="best" from="7681118#0" to="35423215#2"/>
    <trip id="veh223" type="veh_passenger" depart="46.84" departLane="best" from="7690766#8" to="7676941#3"/>
    <trip id="veh224" type="veh_passenger" depart="47.05" departLane="best" departSpeed="max" from="194417029" to="-7677300#0"/>
    <trip id="veh225" type="veh_passenger" depart="47.26" departLane="best" from="-7680320#1" to="43248882#2"/>
    <trip id="veh226" type="veh_passenger" depart="47.47" departLane="best" from="588475546#1" to="223369741#1"/>
    <trip id="veh227" type="veh_passenger" depart="47.68" departLane="best" from="35643716" to="-7679742#0"/>
    <trip id="veh228" type="veh_passenger" depart="47.89" departLane="best" from="-35881239" to="-7681350#0"/>
    <trip id="veh229" type="veh_passenger" depart="48.10" departLane="best" departSpeed="max" from="-7682852" to="-7686477#1"/>
    <trip id="veh230" type="veh_passenger" depart="48.31" departLane="best" departSpeed="max" from="217033751#0" to="-36978396#1"/>
    <trip id="veh231" type="veh_passenger" depart="48.52" departLane="best" from="-7679273#0" to="597941700#0"/>
    <trip id="veh232" type="veh_passenger" depart="48.73" departLane="best" departSpeed="max" from="41443754#0" to="-203210571#0"/>
    <trip id="veh233" type="veh_passenger" depart="48.94" departLane="best" from="-882313454#6" to="291159713"/>
    <trip id="veh234" type="veh_passenger" depart="49.15" departLane="best" from="-892122956#1" to="-49026217#3"/>
    <trip id="veh235" type="veh_passenger" depart="49.36" departLane="best" from="-892887857#1" to="802758552#2"/>
    <trip id="veh236" type="veh_passenger" depart="49.57" departLane="best" from="229357865#2" to="626197863#1"/>
    <trip id="veh237" type="veh_passenger" depart="49.78" departLane="best" from="7684686" to="7679765#2"/>
    <trip id="veh238" type="veh_passenger" depart="49.99" departLane="best" departSpeed="max" from="-82998409" to="-156889126#1"/>
    <trip id="veh239" type="veh_passenger" depart="50.21" departLane="best" from="-7691015" to="7678745#1"/>
    <trip id="veh240" type="veh_passenger" depart="50.42" departLane="best" from="7684100#7" to="87872340"/>
    <trip id="veh241" type="veh_passenger" depart="50.63" departLane="best" from="-892875126#1" to="7677534#3"/>
    <trip id="veh242" type="veh_passenger" depart="50.84" departLane="best" from="218652259" to="40477206#2"/>
    <trip id="veh243" type="veh_passenger" depart="51.05" departLane="best" departSpeed="max" from="-7677358#4" to="-49036454#0"/>
    <trip id="veh244" type="veh_passenger" depart="51.26" departLane="best" from="-910280399#1" to="-194878427"/>
    <trip id="veh245" type="veh_passenger" depart="51.47" departLane="best" departSpeed="max" from="-7689387#1" to="49026751#4"/>
    <trip id="veh246" type="veh_passenger" depart="51.68" departLane="best" from="-87872458#1" to="-413212080#7"/>
    <trip id="veh247" type="veh_passenger" depart="51.89" departLane="best" from="193565552#13" to="-35880973"/>
    <trip id="veh248" type="veh_passenger" depart="52.10" departLane="best" from="35641736#2" to="-194853089"/>
    <trip id="veh249" type="veh_passenger" depart="52.31" departLane="best" from="-85932244#1" to="35880903#2"/>